** written by FreeCAD inp file writer for CalculiX,Abaqus meshes
** highest dimension mesh elements only.

** Nodes
*Node, NSET=Nall
1, 3e-15, 3.3e-14, 147.15
2, 17.98711665093, 2.6e-14, 118.4056512772
3, 20, 1.4e-14, 62.15
4, 20, 1.3e-14, 57.15
5, -1.29823285e-07, 20, 57.15
6, 38.1, 20, 57.15
7, -38.1, 20, 57.15
8, 38.1, -20, 57.15
9, 1.03020185e-07, -20, 57.15
10, -38.1, -20, 57.15
11, 74.58688849684, 12.7, 29.718
12, 74.58688849684, -12.7, 29.718
13, 127, -12.7, 29.718
14, 127, 12.7, 29.718
15, 38.1, 20, 50.8
16, -38.1, 20, 50.8
17, 38.1, -20, 50.8
18, -38.1, -20, 50.8
19, 95.6, -55.3, 50.8
20, 95.6, -46.3, 50.8
** ... 31640 like lines cut


** Volume elements
*Element, TYPE=C3D10, ELSET=Evolumes
6059, 4449, 4468, 4461, 4438, 12636, 12637, 12639, 12640, 12638, 12641
6060, 4718, 4147, 4148, 128, 12642, 12643, 12645, 12646, 12644, 12647
6061, 3150, 3153, 888, 862, 12648, 12649, 12651, 12652, 12650, 5975
6062, 1318, 1344, 1368, 4151, 7806, 7906, 7907, 12654, 12653, 12655
6063, 839, 3910, 791, 830, 12656, 12657, 5891, 5796, 12658, 5800
6064, 4668, 4670, 4669, 2839, 12659, 12660, 12662, 12663, 12661, 12664
6065, 2684, 2687, 4462, 2700, 12665, 12666, 12668, 12669, 12667, 12670
6066, 4493, 4465, 4494, 270, 12671, 12672, 12674, 12675, 12673, 12676
6067, 3778, 3777, 4258, 2870, 12677, 12678, 12680, 12681, 12679, 12682
6068, 4196, 4228, 3977, 4216, 12683, 12684, 12686, 12687, 12685, 12688
6069, 2944, 2988, 3365, 2981, 12689, 12690, 12692, 12693, 12691, 12694
6070, 2601, 4546, 4539, 2609, 12695, 12696, 12698, 12614, 12697, 12699
6071, 3862, 3881, 3658, 2659, 12700, 12701, 12703, 12704, 12702, 12705
6072, 4226, 4150, 4098, 3977, 12706, 12707, 12709, 12710, 12708, 12711
6073, 2113, 2144, 2085, 3004, 10904, 10903, 10770, 12713, 12712, 12714
6074, 2992, 2186, 2768, 2776, 12715, 12716, 12718, 12719, 12717, 12720
6075, 128, 4718, 224, 4720, 12646, 12721, 6771, 12723, 12722, 12724
6076, 4227, 4226, 4098, 3977, 12725, 12709, 12726, 12727, 12710, 12711
6077, 3090, 3086, 3191, 3085, 12728, 12729, 12731, 12732, 12730, 12733
6078, 1343, 1321, 4216, 1353, 7803, 12734, 12735, 7879, 7876, 12736
** ... 19561 like lines cut

** Define element set Eall
*ELSET, ELSET=Eall
Evolumes



***********************************************************
** Element sets for materials and FEM element type (solid, shell, beam, fluid)
** written by write_element_sets_material_and_femelement_type function
*ELSET,ELSET=SolidMaterialSolid
Evolumes

***********************************************************
** Node sets for fixed constraint
** written by write_node_sets_constraints_fixed function
** FemConstraintFixed
*NSET,NSET=FemConstraintFixed
35,
36,
37,
38,
39,
40,
41,
42,
43,
44,
45,
46,
47,
48,
49,
50,
51,
52,
53,
54,
** ... 2287 like lines cut

***********************************************************
** Materials
** written by write_materials function
** Young's modulus unit is MPa = N/mm2
** FreeCAD material name: Wood
** SolidMaterial
*MATERIAL, NAME=SolidMaterial
*ELASTIC
12000, 0.050

***********************************************************
** Sections
** written by write_femelementsets function
*SOLID SECTION, ELSET=SolidMaterialSolid, MATERIAL=SolidMaterial

***********************************************************
** At least one step is needed to run an CalculiX analysis of FreeCAD
** written by write_step_begin function
*STEP
*STATIC


***********************************************************
** Fixed Constraints
** written by write_constraints_fixed function
** FemConstraintFixed
*BOUNDARY
FemConstraintFixed,1
FemConstraintFixed,2
FemConstraintFixed,3


***********************************************************
** Node loads Constraints
** written by write_constraints_force function
*CLOAD
** FemConstraintForce
** node loads on shape: Fusion:Face33
3,1,0.0000000000000E+00
3,2,0.0000000000000E+00
3,3,-0.0000000000000E+00
4,1,0.0000000000000E+00
4,2,0.0000000000000E+00
4,3,-0.0000000000000E+00
5,1,0.0000000000000E+00
5,2,0.0000000000000E+00
5,3,-0.0000000000000E+00
9,1,0.0000000000000E+00
9,2,0.0000000000000E+00
9,3,-0.0000000000000E+00
78,1,0.0000000000000E+00
78,2,0.0000000000000E+00
78,3,-0.0000000000000E+00
79,1,0.0000000000000E+00
79,2,0.0000000000000E+00
79,3,-0.0000000000000E+00
80,1,0.0000000000000E+00
80,2,0.0000000000000E+00
** ... 2074 like lines cut

** node loads on shape: Fusion:Face34
2,1,0.0000000000000E+00
2,2,0.0000000000000E+00
2,3,-0.0000000000000E+00
3,1,0.0000000000000E+00
3,2,0.0000000000000E+00
3,3,-0.0000000000000E+00
63,1,0.0000000000000E+00
63,2,0.0000000000000E+00
63,3,-0.0000000000000E+00
64,1,0.0000000000000E+00
64,2,0.0000000000000E+00
64,3,-0.0000000000000E+00
65,1,0.0000000000000E+00
65,2,0.0000000000000E+00
65,3,-0.0000000000000E+00
66,1,0.0000000000000E+00
66,2,0.0000000000000E+00
66,3,-0.0000000000000E+00
67,1,0.0000000000000E+00
67,2,0.0000000000000E+00
** ... 2113 like lines cut

** node loads on shape: Fusion:Face35
1,1,0.0000000000000E+00
1,2,0.0000000000000E+00
1,3,-0.0000000000000E+00
2,1,0.0000000000000E+00
2,2,0.0000000000000E+00
2,3,-0.0000000000000E+00
63,1,0.0000000000000E+00
63,2,0.0000000000000E+00
63,3,-0.0000000000000E+00
64,1,0.0000000000000E+00
64,2,0.0000000000000E+00
64,3,-0.0000000000000E+00
65,1,0.0000000000000E+00
65,2,0.0000000000000E+00
65,3,-0.0000000000000E+00
66,1,0.0000000000000E+00
66,2,0.0000000000000E+00
66,3,-0.0000000000000E+00
67,1,0.0000000000000E+00
67,2,0.0000000000000E+00
** ... 508 like lines cut



***********************************************************
** Outputs --> frd file
** written by write_outputs_types function
*NODE FILE
U
*EL FILE
S, E
** outputs --> dat file
*NODE PRINT , NSET=Nall
U 
*EL PRINT , ELSET=Eall
S 

***********************************************************
** written by write_step_end function
*END STEP 

***********************************************************
** CalculiX Input file
** written by write_footer function
**   written by    --> FreeCAD 0.17.13541 (Git)
**   written on    --> Tue Dec 11 21:31:41 2018
**   file name     --> Bell-metal-detector-FEM.FCStd
**   analysis name --> Analysis
**
**
**
**   Units
**
**   Geometry (mesh data)        --> mm
**   Materials (Young's modulus) --> N/mm2 = MPa
**   Loads (nodal loads)         --> N
**
