** written by FreeCAD inp file writer for CalculiX,Abaqus meshes
** highest dimension mesh elements only.

** Nodes
*Node, NSET=Nall
1, -127, 76.2, 25.4
2, -127, 76.2, 50.9
3, 127, 76.2, 25.4
4, 127, 76.2, 50.9
5, -127, 54.55, 25.4
6, -127, 54.55, 50.9
7, 127, 54.54999999997, 25.40000000003
8, 127, 54.54999999997, 50.9
9, -95.6, 54.55, 25.4
10, -95.6, 47.05, 25.4
11, -127, 47.05, 25.4
12, -127, -47.05000000001, 25.39999999999
13, -95.6, -47.05000000001, 25.39999999999
14, -95.6, -54.55000000001, 25.39999999999
15, -127, -54.55000000001, 25.39999999999
16, -127, -76.2, 25.4
17, 127, -76.2, 25.4
18, 127, -54.54999999998, 25.40000000002
19, 95.60000000001, -54.54999999998, 25.40000000001
20, 95.60000000001, -47.04999999998, 25.40000000001
** ... 2473 like lines cut


** Volume elements
*Element, TYPE=C3D10, ELSET=Evolumes
1041, 1289, 9, 5, 445, 1292, 101, 1291, 1726, 471, 472
1042, 1340, 15, 14, 443, 1341, 115, 1342, 1727, 502, 503
1043, 1620, 287, 56, 1521, 1625, 289, 1626, 1728, 1530, 1527
1044, 55, 287, 1619, 1522, 288, 1624, 1623, 1523, 1529, 1729
1045, 869, 749, 837, 389, 1087, 1085, 1086, 1731, 1730, 1732
1046, 749, 837, 389, 1720, 1085, 1732, 1730, 1734, 1733, 1735
1047, 424, 868, 787, 1720, 1737, 1200, 1736, 1739, 1738, 1740
1048, 284, 55, 1619, 1507, 286, 1623, 1622, 1520, 1513, 1741
1049, 1620, 56, 291, 1532, 1626, 292, 1627, 1742, 1534, 1540
1050, 1533, 295, 1604, 58, 1545, 1611, 1743, 1538, 297, 1612
1051, 53, 1508, 280, 1605, 1509, 1515, 281, 1606, 1744, 1607
1052, 389, 837, 435, 1720, 1732, 1745, 673, 1735, 1733, 1746
1053, 780, 837, 868, 1720, 1266, 1265, 1197, 1747, 1733, 1738
1054, 780, 869, 837, 435, 1267, 1086, 1266, 1749, 1748, 1745
1055, 435, 869, 837, 389, 1748, 1086, 1745, 673, 1731, 1732
1056, 435, 837, 780, 1720, 1745, 1266, 1749, 1746, 1733, 1747
1057, 462, 750, 433, 1723, 1751, 1750, 692, 1753, 1752, 1754
1058, 389, 869, 749, 429, 1731, 1087, 1730, 675, 1755, 1756
1059, 839, 192, 193, 1419, 1026, 195, 1025, 1757, 1447, 1450
1060, 1677, 1672, 318, 1674, 1718, 1758, 1759, 1712, 1705, 1697
** ... 1169 like lines cut

** Define element set Eall
*ELSET, ELSET=Eall
Evolumes



***********************************************************
** Element sets for materials and FEM element type (solid, shell, beam, fluid)
** written by write_element_sets_material_and_femelement_type function
*ELSET,ELSET=SolidMaterial001Solid
Evolumes

***********************************************************
** Node sets for fixed constraint
** written by write_node_sets_constraints_fixed function
** FemConstraintFixed001
*NSET,NSET=FemConstraintFixed001
1,
3,
5,
7,
9,
10,
11,
12,
13,
14,
15,
16,
17,
18,
19,
20,
21,
22,
23,
24,
** ... 453 like lines cut

***********************************************************
** Materials
** written by write_materials function
** Young's modulus unit is MPa = N/mm2
** FreeCAD material name: Wood
** SolidMaterial001
*MATERIAL, NAME=SolidMaterial001
*ELASTIC
12000, 0.050

***********************************************************
** Sections
** written by write_femelementsets function
*SOLID SECTION, ELSET=SolidMaterial001Solid, MATERIAL=SolidMaterial001

***********************************************************
** At least one step is needed to run an CalculiX analysis of FreeCAD
** written by write_step_begin function
*STEP
*STATIC


***********************************************************
** Fixed Constraints
** written by write_constraints_fixed function
** FemConstraintFixed001
*BOUNDARY
FemConstraintFixed001,1
FemConstraintFixed001,2
FemConstraintFixed001,3


***********************************************************
** Node loads Constraints
** written by write_constraints_force function
*CLOAD
** FemConstraintForce001
** node loads on shape: Fusion:Face29
45,1,0.0000000000000E+00
48,1,0.0000000000000E+00
53,1,0.0000000000000E+00
58,1,0.0000000000000E+00
232,1,0.0000000000000E+00
233,1,8.1029721464613E+00
234,1,8.1029721464613E+00
279,1,8.1029721464613E+00
294,1,8.1029721464613E+00
298,1,0.0000000000000E+00
299,1,8.1029721464613E+00
300,1,8.1029721464613E+00
1546,1,0.0000000000000E+00
1547,1,0.0000000000000E+00
1548,1,1.6205944292923E+01
1549,1,1.6205944292923E+01
1550,1,1.6205944292923E+01
1551,1,1.6205944292923E+01
1552,1,1.6205944292923E+01
1553,1,1.6205944292923E+01
1554,1,1.6205944292923E+01
1555,1,1.6205944292923E+01
1556,1,1.6205944292923E+01

** node loads on shape: Fusion:Face33
54,1,0.0000000000000E+00
57,1,0.0000000000000E+00
59,1,0.0000000000000E+00
60,1,0.0000000000000E+00
301,1,0.0000000000000E+00
302,1,1.9533050319072E+01
303,1,1.9533050319092E+01
304,1,0.0000000000000E+00
305,1,9.9578673744466E+00
306,1,9.9578673744467E+00
307,1,0.0000000000000E+00
308,1,9.9578771014258E+00
309,1,9.9578771014233E+00
310,1,1.9915744475870E+01
311,1,0.0000000000000E+00
312,1,0.0000000000000E+00
313,1,0.0000000000000E+00
314,1,2.2581129509345E+01
315,1,1.9533059485835E+01
316,1,1.9533059485856E+01
** ... 10 like lines cut

** node loads on shape: Fusion:Face34
60,1,0.0000000000000E+00
61,1,0.0000000000000E+00
311,1,0.0000000000000E+00
312,1,0.0000000000000E+00
313,1,0.0000000000000E+00
314,1,1.1709688164228E+02
315,1,1.1428951289695E+02
316,1,1.1431113442205E+02
317,1,1.1709688164231E+02
318,1,0.0000000000000E+00
319,1,0.0000000000000E+00
320,1,0.0000000000000E+00
321,1,1.2755756885310E+02
322,1,1.2349358444732E+02
323,1,1.2352593088340E+02
324,1,1.2755756885313E+02
325,1,0.0000000000000E+00
326,1,2.5511513770623E+02
327,1,2.3419376328459E+02
1649,1,0.0000000000000E+00
** ... 16 like lines cut

** node loads on shape: Fusion:Face35
61,1,0.0000000000000E+00
62,1,0.0000000000000E+00
318,1,0.0000000000000E+00
319,1,0.0000000000000E+00
320,1,0.0000000000000E+00
321,1,4.6773801827746E+01
322,1,4.6773801827656E+01
323,1,4.6773801827531E+01
324,1,4.6773801827620E+01
328,1,0.0000000000000E+00
329,1,9.8427013316725E+01
330,1,7.9248102297929E+01
1666,1,0.0000000000000E+00
1667,1,0.0000000000000E+00
1668,1,0.0000000000000E+00
1669,1,0.0000000000000E+00
1670,1,0.0000000000000E+00
1671,1,0.0000000000000E+00
1672,1,0.0000000000000E+00
1673,1,0.0000000000000E+00
** ... 45 like lines cut



***********************************************************
** Outputs --> frd file
** written by write_outputs_types function
*NODE FILE
U
*EL FILE
S, E
** outputs --> dat file
*NODE PRINT , NSET=Nall
U 
*EL PRINT , ELSET=Eall
S 

***********************************************************
** written by write_step_end function
*END STEP 

***********************************************************
** CalculiX Input file
** written by write_footer function
**   written by    --> FreeCAD 0.17.13541 (Git)
**   written on    --> Mon Dec 10 18:15:59 2018
**   file name     --> bell-metaldetector-FEM.fcstd
**   analysis name --> Analysis001
**
**
**
**   Units
**
**   Geometry (mesh data)        --> mm
**   Materials (Young's modulus) --> N/mm2 = MPa
**   Loads (nodal loads)         --> N
**
